@<TRIPOS>MOLECULE
MDMA
 14 15 0 0 0
SMALL
GASTEIGER

@<TRIPOS>ATOM
      1 C           0.0000    0.0000    0.0000 C.3     1  LIG1        0.0192
      2 C           0.0000    0.0000    0.0000 C.3     1  LIG1        0.0772
      3 N           0.0000    0.0000    0.0000 N.3     1  LIG1       -0.2176
      4 C           0.0000    0.0000    0.0000 C.3     1  LIG1        0.1074
      5 C           0.0000    0.0000    0.0000 C.3     1  LIG1        0.0438
      6 C           0.0000    0.0000    0.0000 C.ar    1  LIG1       -0.0176
      7 C           0.0000    0.0000    0.0000 C.ar    1  LIG1       -0.0009
      8 C           0.0000    0.0000    0.0000 C.ar    1  LIG1        0.0399
      9 C           0.0000    0.0000    0.0000 C.ar    1  LIG1        0.1764
     10 O           0.0000    0.0000    0.0000 O.3     1  LIG1       -0.4346
     11 C           0.0000    0.0000    0.0000 C.3     1  LIG1        0.4294
     12 O           0.0000    0.0000    0.0000 O.3     1  LIG1       -0.4346
     13 C           0.0000    0.0000    0.0000 C.ar    1  LIG1        0.1761
     14 C           0.0000    0.0000    0.0000 C.ar    1  LIG1        0.0360
@<TRIPOS>BOND
     1     1     2    1
     2     2     3    1
     3     2     5    1
     4     3     4    1
     5     5     6    1
     6     6    14   ar
     7     6     7   ar
     8     7     8   ar
     9     8     9   ar
    10     9    10    1
    11     9    13   ar
    12    10    11    1
    13    11    12    1
    14    12    13    1
    15    13    14   ar
